reports/poster/ias2026/research/results/BC/BC00/BC00_units_per_machine.csv
benchmark,bus,slack,S_base_MVA,Sn_machine_MVA,Sn_meaning,inverter_rating_MVA,inverter_rating_rule,active_nameplate_MW,nameplate_source,P_dispatch_pu,P_dispatch_MW,Q_dispatch_Mvar,S_dispatch_MVA,available_PV_MW,available_PV_note,retired_active_MW_if_replaced,P_util_of_inverter,Q_util_of_inverter,current_util_of_inverter,S_util_of_Sn,V_pu
IEEE-39,30,False,100.0,1040.0,machine rating,1040.0,= Sn (weight rho*Sn/100),1040.0,PV/Slack.pmax of the source case,4.360863850000089,436.08638500000893,92.69564784065741,445.8293600818313,,NOT MODELLED: the converter holds P_ref = dispatch,436.08638500000893,0.4193138317307778,0.08913043061601675,0.4139719960926063,0.42868207700176086,1.0355339999999997
IEEE-39,31,False,100.0,836.0,machine rating,836.0,= Sn (weight rho*Sn/100),650.0,PV/Slack.pmax of the source case,6.459999980000191,645.9999980000191,311.2143544052263,717.0567423878576,,NOT MODELLED: the converter holds P_ref = dispatch,645.9999980000191,0.772727270334951,0.372265974168931,0.8465104980054504,0.8577233760620306,1.013246
IEEE-39,32,False,100.0,843.7,machine rating,843.7,= Sn (weight rho*Sn/100),750.0,PV/Slack.pmax of the source case,7.249999980000314,724.9999980000314,149.08257436344363,740.1693124406586,,NOT MODELLED: the converter holds P_ref = dispatch,724.9999980000314,0.859310178973606,0.1767009296710248,0.8596429408802378,0.8772896911706276,1.0205280000000003
IEEE-39,33,False,100.0,1174.8,machine rating,1174.8,= Sn (weight rho*Sn/100),682.0,PV/Slack.pmax of the source case,6.5199999800001365,651.9999980000136,130.0435828538664,664.8423353198021,,NOT MODELLED: the converter holds P_ref = dispatch,651.9999980000136,0.5549880813755649,0.11069423123413893,0.5584200101051141,0.5659195908408258,1.01343
IEEE-39,34,False,100.0,1080.2,machine rating,1080.2,= Sn (weight rho*Sn/100),550.0,PV/Slack.pmax of the source case,5.079999980000037,507.99999800000364,145.21571021384497,528.3479918206514,,NOT MODELLED: the converter holds P_ref = dispatch,507.99999800000364,0.47028327902240663,0.1344340957358313,0.47994917684223903,0.48912052566251746,1.019109
IEEE-39,35,False,100.0,1085.7,machine rating,1085.7,= Sn (weight rho*Sn/100),697.0,PV/Slack.pmax of the source case,6.869999980001136,686.9999980001136,225.5269369153059,723.0708101746028,,NOT MODELLED: the converter holds P_ref = dispatch,686.9999980001136,0.6327714819932887,0.20772491196030754,0.6282972034168051,0.6659950356218134,1.06
IEEE-39,36,False,100.0,1025.2,machine rating,1025.2,= Sn (weight rho*Sn/100),595.0,PV/Slack.pmax of the source case,5.799999980000921,579.9999980000921,60.70806633578728,583.1684722259401,,NOT MODELLED: the converter holds P_ref = dispatch,579.9999980000921,0.5657432676551815,0.05921582748321037,0.5366357160185403,0.5688338589796529,1.06
IEEE-39,37,False,100.0,970.2,machine rating,970.2,= Sn (weight rho*Sn/100),564.0,PV/Slack.pmax of the source case,3.2152133800000744,321.52133800000746,-27.617115791334168,322.7052461208943,,NOT MODELLED: the converter holds P_ref = dispatch,321.52133800000746,0.3313969676355467,0.02846538424173796,0.32802618537843364,0.33261723986899017,1.013996
IEEE-39,38,False,100.0,1684.1,machine rating,1684.1,= Sn (weight rho*Sn/100),865.0,PV/Slack.pmax of the source case,7.647833810000076,764.7833810000076,123.27580772995847,774.6551133409477,,NOT MODELLED: the converter holds P_ref = dispatch,764.7833810000076,0.45411993408942913,0.0731998145774945,0.43691142582478854,0.45998165984261485,1.052803
IEEE-39,39,True,100.0,1199.0,machine rating,1199.0,= Sn (weight rho*Sn/100),1100.0,PV/Slack.pmax of the source case,5.731098555345193,573.1098555345193,-29.62740543589004,573.8751516346218,,NOT MODELLED: the converter holds P_ref = dispatch,573.1098555345193,0.4779898711714089,0.024710096276805704,0.4646875240974451,0.4786281498203685,1.03
Kundur,1,True,100.0,900.0,machine rating,900.0,= Sn (weight rho*Sn/100),,none valid,7.268023823771389,726.8023823771389,109.46311389656391,734.9992356002942,,NOT MODELLED: the converter holds P_ref = dispatch,726.8023823771389,0.8075582026412654,0.12162568210729323,0.8166658173336603,0.8166658173336603,1.0
Kundur,2,False,100.0,900.0,machine rating,900.0,= Sn (weight rho*Sn/100),900.0,PV/Slack.pmax of the source case,6.99999999999998,699.999999999998,228.0474918621311,736.210335803978,,NOT MODELLED: the converter holds P_ref = dispatch,699.999999999998,0.7777777777777755,0.25338610206903456,0.8180114842266422,0.8180114842266422,1.0
Kundur,3,False,100.0,900.0,machine rating,900.0,= Sn (weight rho*Sn/100),900.0,PV/Slack.pmax of the source case,7.000000000000105,700.0000000000105,232.38425680683267,737.5652125823714,,NOT MODELLED: the converter holds P_ref = dispatch,700.0000000000105,0.7777777777777894,0.2582047297853696,0.8195169028693017,0.8195169028693016,0.9999999999999999
Kundur,4,False,100.0,900.0,machine rating,900.0,= Sn (weight rho*Sn/100),2000.0,PV/Slack.pmax of the source case,7.000000000000005,700.0000000000006,106.09085532505456,707.9938344248503,,NOT MODELLED: the converter holds P_ref = dispatch,700.0000000000006,0.7777777777777785,0.1178787281389495,0.7866598160276115,0.7866598160276115,1.0
IEEE-68,1,False,100.0,100.0,"per-unit base, not a rating",397.09367215310834,|S_gen|/0.8,,none valid,2.500000000000051,250.00000000000512,196.0034848082636,317.6749377224867,,NOT MODELLED: the converter holds P_ref = dispatch,250.00000000000512,0.6295743738359347,0.4935950848712847,0.7655502392344499,3.176749377224867,1.045
IEEE-68,2,False,100.0,100.0,"per-unit base, not a rating",686.8478824731036,|S_gen|/0.8,,none valid,5.45000000000027,545.0000000000271,70.01006171225592,549.4783059784829,,NOT MODELLED: the converter holds P_ref = dispatch,545.0000000000271,0.7934799158696814,0.10192950069260416,0.8163265306122449,5.4947830597848295,0.98
IEEE-68,3,False,100.0,100.0,"per-unit base, not a rating",818.7507881572651,|S_gen|/0.8,,none valid,6.50000000000023,650.000000000023,80.78258468990367,655.0006305258121,,NOT MODELLED: the converter holds P_ref = dispatch,650.000000000023,0.79389236554258,0.0986656573140141,0.8138351983723295,6.550006305258121,0.983
IEEE-68,4,False,100.0,100.0,"per-unit base, not a rating",790.0000710327394,|S_gen|/0.8,,none valid,6.319999999999963,631.9999999999962,0.26800804838416625,632.0000568261916,,NOT MODELLED: the converter holds P_ref = dispatch,631.9999999999962,0.7999999280681137,0.00033925066365349656,0.8024072216649951,6.320000568261915,0.997
IEEE-68,5,False,100.0,100.0,"per-unit base, not a rating",647.8501833154907,|S_gen|/0.8,,none valid,5.050000000000008,505.0000000000008,116.57319766577892,518.2801466523925,,NOT MODELLED: the converter holds P_ref = dispatch,505.0000000000008,0.7795012072321595,0.17993851150769838,0.7912957467853611,5.182801466523926,1.011
IEEE-68,6,False,100.0,100.0,"per-unit base, not a rating",931.0313009193032,|S_gen|/0.8,,none valid,7.000000000000258,700.0000000000258,254.48839130010944,744.8250407354426,,NOT MODELLED: the converter holds P_ref = dispatch,700.0000000000258,0.7518544213377613,0.2733403173973064,0.7619047619047619,7.448250407354426,1.05
IEEE-68,7,False,100.0,100.0,"per-unit base, not a rating",788.7720102155131,|S_gen|/0.8,,none valid,5.600000000000229,560.0000000000229,290.8319477354649,631.0176081724105,,NOT MODELLED: the converter holds P_ref = dispatch,560.0000000000229,0.7099643404524664,0.36871484277947697,0.7525870178739418,6.310176081724105,1.063
IEEE-68,8,False,100.0,100.0,"per-unit base, not a rating",677.7816990669222,|S_gen|/0.8,,none valid,5.400000000000104,540.0000000000105,49.0748430218269,542.2253592535378,,NOT MODELLED: the converter holds P_ref = dispatch,540.0000000000105,0.7967167020641146,0.07240508719752463,0.7766990291262137,5.4222535925353785,1.03
IEEE-68,9,False,100.0,100.0,"per-unit base, not a rating",1002.7905505807355,|S_gen|/0.8,,none valid,8.000000000000156,800.0000000000157,59.80709434293272,802.2324404645884,,NOT MODELLED: the converter holds P_ref = dispatch,800.0000000000157,0.7977737719374401,0.05964066405322355,0.7804878048780489,8.022324404645884,1.025
IEEE-68,10,False,100.0,100.0,"per-unit base, not a rating",625.214613836248,|S_gen|/0.8,,none valid,5.000000000000062,500.0000000000062,-13.104218664817724,500.17169106899837,,NOT MODELLED: the converter holds P_ref = dispatch,500.0000000000062,0.7997253885862668,0.020959552727681272,0.7920792079207921,5.001716910689984,1.01
IEEE-68,11,False,100.0,100.0,"per-unit base, not a rating",1250.0432850005727,|S_gen|/0.8,,none valid,9.999999999999964,999.9999999999965,8.322091084683958,1000.0346280004582,,NOT MODELLED: the converter holds P_ref = dispatch,999.9999999999965,0.7999722985588762,0.006657442333830981,0.8000000000000002,10.000346280004582,0.9999999999999999
IEEE-68,12,False,100.0,100.0,"per-unit base, not a rating",1723.4284550535397,|S_gen|/0.8,,none valid,13.499999999999622,1349.9999999999623,280.05643966988225,1378.7427640428318,,NOT MODELLED: the converter holds P_ref = dispatch,1349.9999999999623,0.7833223340611627,0.16249960295635368,0.7877116975187082,13.787427640428318,1.0156
IEEE-68,13,False,100.0,200.0,"per-unit base, not a rating",4623.069307823624,|S_gen|/0.8,,none valid,35.90999999999922,3590.9999999999222,885.0376760131038,3698.4554462588994,,NOT MODELLED: the converter holds P_ref = dispatch,3590.9999999999222,0.7767566871478371,0.19143941331689618,0.7912957467853612,18.492277231294498,1.011
IEEE-68,14,False,100.0,100.0,"per-unit base, not a rating",2232.0392952630655,|S_gen|/0.8,,none valid,17.850000000000044,1785.0000000000043,47.482902006788976,1785.6314362104524,,NOT MODELLED: the converter holds P_ref = dispatch,1785.0000000000043,0.7997171034525297,0.021273327090414282,0.8,17.856314362104523,1.0
IEEE-68,15,False,100.0,100.0,"per-unit base, not a rating",1253.674064993821,|S_gen|/0.8,,none valid,10.0,1000.0,76.72772114695155,1002.9392519950569,,NOT MODELLED: the converter holds P_ref = dispatch,1000.0,0.7976554895110864,0.06120228797054179,0.8,10.02939251995057,1.0
IEEE-68,16,True,100.0,200.0,"per-unit base, not a rating",4226.035938058634,|S_gen|/0.8,,none valid,33.795316767673576,3379.5316767673576,93.64126000013471,3380.8287504469076,,NOT MODELLED: the converter holds P_ref = dispatch,3379.5316767673576,0.7996930755680829,0.022158178816423374,0.8,16.90414375223454,1.0
